Localizador/JMLT310/CodCondutor_2023124950_JMLT310_--MBS-1P-T--.dss
New "Linecode.CO10_2_1" nphases=1 basefreq=60 r1=2.0628 x1=0.1458 units=km normamps=163.20
New "Linecode.CO10_2_2" nphases=2 basefreq=60 r1=2.0628 x1=0.1458 units=km normamps=163.20
New "Linecode.CO10_2_3" nphases=3 basefreq=60 r1=2.0628 x1=0.1458 units=km normamps=163.20
New "Linecode.CO10_2_4" nphases=4 basefreq=60 r1=2.0628 x1=0.1458 units=km normamps=163.20

New "Linecode.CO10_3_1" nphases=1 basefreq=60 r1=2.0628 x1=0.1458 units=km normamps=163.20
New "Linecode.CO10_3_2" nphases=2 basefreq=60 r1=2.0628 x1=0.1458 units=km normamps=163.20
New "Linecode.CO10_3_3" nphases=3 basefreq=60 r1=2.0628 x1=0.1458 units=km normamps=163.20
New "Linecode.CO10_3_4" nphases=4 basefreq=60 r1=2.0628 x1=0.1458 units=km normamps=163.20

New "Linecode.CO6_1_1" nphases=1 basefreq=60 r1=3.3000 x1=0.0500 units=km normamps=34.00
New "Linecode.CO6_1_2" nphases=2 basefreq=60 r1=3.3000 x1=0.0500 units=km normamps=34.00
New "Linecode.CO6_1_3" nphases=3 basefreq=60 r1=3.3000 x1=0.0500 units=km normamps=34.00
New "Linecode.CO6_1_4" nphases=4 basefreq=60 r1=3.3000 x1=0.0500 units=km normamps=34.00

New "Linecode.1_1" nphases=1 basefreq=60 r1=0.5323 x1=0.0800 units=km normamps=235.20
New "Linecode.1_2" nphases=2 basefreq=60 r1=0.5323 x1=0.0800 units=km normamps=235.20
New "Linecode.1_3" nphases=3 basefreq=60 r1=0.5323 x1=0.0800 units=km normamps=235.20
New "Linecode.1_4" nphases=4 basefreq=60 r1=0.5323 x1=0.0800 units=km normamps=235.20

New "Linecode.2_1" nphases=1 basefreq=60 r1=1.0429 x1=0.0818 units=km normamps=176.00
New "Linecode.2_2" nphases=2 basefreq=60 r1=1.0429 x1=0.0818 units=km normamps=176.00
New "Linecode.2_3" nphases=3 basefreq=60 r1=1.0429 x1=0.0818 units=km normamps=176.00
New "Linecode.2_4" nphases=4 basefreq=60 r1=1.0429 x1=0.0818 units=km normamps=176.00

New "Linecode.3_1" nphases=1 basefreq=60 r1=2.2949 x1=0.0821 units=km normamps=152.00
New "Linecode.3_2" nphases=2 basefreq=60 r1=2.2949 x1=0.0821 units=km normamps=152.00
New "Linecode.3_3" nphases=3 basefreq=60 r1=2.2949 x1=0.0821 units=km normamps=152.00
New "Linecode.3_4" nphases=4 basefreq=60 r1=2.2949 x1=0.0821 units=km normamps=152.00

New "Linecode.4_1" nphases=1 basefreq=60 r1=2.2949 x1=0.0821 units=km normamps=152.00
New "Linecode.4_2" nphases=2 basefreq=60 r1=2.2949 x1=0.0821 units=km normamps=152.00
New "Linecode.4_3" nphases=3 basefreq=60 r1=2.2949 x1=0.0821 units=km normamps=152.00
New "Linecode.4_4" nphases=4 basefreq=60 r1=2.2949 x1=0.0821 units=km normamps=152.00

New "Linecode.5_1" nphases=1 basefreq=60 r1=2.2949 x1=0.0821 units=km normamps=152.00
New "Linecode.5_2" nphases=2 basefreq=60 r1=2.2949 x1=0.0821 units=km normamps=152.00
New "Linecode.5_3" nphases=3 basefreq=60 r1=2.2949 x1=0.0821 units=km normamps=152.00
New "Linecode.5_4" nphases=4 basefreq=60 r1=2.2949 x1=0.0821 units=km normamps=152.00

New "Linecode.6_1" nphases=1 basefreq=60 r1=2.2949 x1=0.0821 units=km normamps=152.00
New "Linecode.6_2" nphases=2 basefreq=60 r1=2.2949 x1=0.0821 units=km normamps=152.00
New "Linecode.6_3" nphases=3 basefreq=60 r1=2.2949 x1=0.0821 units=km normamps=152.00
New "Linecode.6_4" nphases=4 basefreq=60 r1=2.2949 x1=0.0821 units=km normamps=152.00

New "Linecode.7_1" nphases=1 basefreq=60 r1=3.7006 x1=0.0820 units=km normamps=113.60
New "Linecode.7_2" nphases=2 basefreq=60 r1=3.7006 x1=0.0820 units=km normamps=113.60
New "Linecode.7_3" nphases=3 basefreq=60 r1=3.7006 x1=0.0820 units=km normamps=113.60
New "Linecode.7_4" nphases=4 basefreq=60 r1=3.7006 x1=0.0820 units=km normamps=113.60

New "Linecode.8_1" nphases=1 basefreq=60 r1=3.7006 x1=0.0820 units=km normamps=113.60
New "Linecode.8_2" nphases=2 basefreq=60 r1=3.7006 x1=0.0820 units=km normamps=113.60
New "Linecode.8_3" nphases=3 basefreq=60 r1=3.7006 x1=0.0820 units=km normamps=113.60
New "Linecode.8_4" nphases=4 basefreq=60 r1=3.7006 x1=0.0820 units=km normamps=113.60

New "Linecode.9_1" nphases=1 basefreq=60 r1=2.2949 x1=0.0821 units=km normamps=152.00
New "Linecode.9_2" nphases=2 basefreq=60 r1=2.2949 x1=0.0821 units=km normamps=152.00
New "Linecode.9_3" nphases=3 basefreq=60 r1=2.2949 x1=0.0821 units=km normamps=152.00
New "Linecode.9_4" nphases=4 basefreq=60 r1=2.2949 x1=0.0821 units=km normamps=152.00

New "Linecode.10_1" nphases=1 basefreq=60 r1=2.2949 x1=0.0821 units=km normamps=152.00
New "Linecode.10_2" nphases=2 basefreq=60 r1=2.2949 x1=0.0821 units=km normamps=152.00
New "Linecode.10_3" nphases=3 basefreq=60 r1=2.2949 x1=0.0821 units=km normamps=152.00
New "Linecode.10_4" nphases=4 basefreq=60 r1=2.2949 x1=0.0821 units=km normamps=152.00

New "Linecode.11_1" nphases=1 basefreq=60 r1=1.4418 x1=0.0833 units=km normamps=200.00
New "Linecode.11_2" nphases=2 basefreq=60 r1=1.4418 x1=0.0833 units=km normamps=200.00
New "Linecode.11_3" nphases=3 basefreq=60 r1=1.4418 x1=0.0833 units=km normamps=200.00
New "Linecode.11_4" nphases=4 basefreq=60 r1=1.4418 x1=0.0833 units=km normamps=200.00

New "Linecode.12_1" nphases=1 basefreq=60 r1=1.4418 x1=0.0833 units=km normamps=200.00
New "Linecode.12_2" nphases=2 basefreq=60 r1=1.4418 x1=0.0833 units=km normamps=200.00
New "Linecode.12_3" nphases=3 basefreq=60 r1=1.4418 x1=0.0833 units=km normamps=200.00
New "Linecode.12_4" nphases=4 basefreq=60 r1=1.4418 x1=0.0833 units=km normamps=200.00

New "Linecode.13_1" nphases=1 basefreq=60 r1=1.0429 x1=0.0818 units=km normamps=176.00
New "Linecode.13_2" nphases=2 basefreq=60 r1=1.0429 x1=0.0818 units=km normamps=176.00
New "Linecode.13_3" nphases=3 basefreq=60 r1=1.0429 x1=0.0818 units=km normamps=176.00
New "Linecode.13_4" nphases=4 basefreq=60 r1=1.0429 x1=0.0818 units=km normamps=176.00

New "Linecode.14_1" nphases=1 basefreq=60 r1=3.7006 x1=0.0820 units=km normamps=113.60
New "Linecode.14_2" nphases=2 basefreq=60 r1=3.7006 x1=0.0820 units=km normamps=113.60
New "Linecode.14_3" nphases=3 basefreq=60 r1=3.7006 x1=0.0820 units=km normamps=113.60
New "Linecode.14_4" nphases=4 basefreq=60 r1=3.7006 x1=0.0820 units=km normamps=113.60

New "Linecode.15_1" nphases=1 basefreq=60 r1=3.7006 x1=0.0820 units=km normamps=113.60
New "Linecode.15_2" nphases=2 basefreq=60 r1=3.7006 x1=0.0820 units=km normamps=113.60
New "Linecode.15_3" nphases=3 basefreq=60 r1=3.7006 x1=0.0820 units=km normamps=113.60
New "Linecode.15_4" nphases=4 basefreq=60 r1=3.7006 x1=0.0820 units=km normamps=113.60

New "Linecode.16_1" nphases=1 basefreq=60 r1=3.7006 x1=0.0820 units=km normamps=113.60
New "Linecode.16_2" nphases=2 basefreq=60 r1=3.7006 x1=0.0820 units=km normamps=113.60
New "Linecode.16_3" nphases=3 basefreq=60 r1=3.7006 x1=0.0820 units=km normamps=113.60
New "Linecode.16_4" nphases=4 basefreq=60 r1=3.7006 x1=0.0820 units=km normamps=113.60

New "Linecode.17_1" nphases=1 basefreq=60 r1=1.4418 x1=0.0833 units=km normamps=200.00
New "Linecode.17_2" nphases=2 basefreq=60 r1=1.4418 x1=0.0833 units=km normamps=200.00
New "Linecode.17_3" nphases=3 basefreq=60 r1=1.4418 x1=0.0833 units=km normamps=200.00
New "Linecode.17_4" nphases=4 basefreq=60 r1=1.4418 x1=0.0833 units=km normamps=200.00

New "Linecode.18_1" nphases=1 basefreq=60 r1=1.0429 x1=0.0818 units=km normamps=176.00
New "Linecode.18_2" nphases=2 basefreq=60 r1=1.0429 x1=0.0818 units=km normamps=176.00
New "Linecode.18_3" nphases=3 basefreq=60 r1=1.0429 x1=0.0818 units=km normamps=176.00
New "Linecode.18_4" nphases=4 basefreq=60 r1=1.0429 x1=0.0818 units=km normamps=176.00

New "Linecode.19_1" nphases=1 basefreq=60 r1=0.5323 x1=0.0800 units=km normamps=235.20
New "Linecode.19_2" nphases=2 basefreq=60 r1=0.5323 x1=0.0800 units=km normamps=235.20
New "Linecode.19_3" nphases=3 basefreq=60 r1=0.5323 x1=0.0800 units=km normamps=235.20
New "Linecode.19_4" nphases=4 basefreq=60 r1=0.5323 x1=0.0800 units=km normamps=235.20

New "Linecode.20_1" nphases=1 basefreq=60 r1=1.4418 x1=0.0833 units=km normamps=200.00
New "Linecode.20_2" nphases=2 basefreq=60 r1=1.4418 x1=0.0833 units=km normamps=200.00
New "Linecode.20_3" nphases=3 basefreq=60 r1=1.4418 x1=0.0833 units=km normamps=200.00
New "Linecode.20_4" nphases=4 basefreq=60 r1=1.4418 x1=0.0833 units=km normamps=200.00

New "Linecode.21_1" nphases=1 basefreq=60 r1=1.4418 x1=0.0833 units=km normamps=200.00
New "Linecode.21_2" nphases=2 basefreq=60 r1=1.4418 x1=0.0833 units=km normamps=200.00
New "Linecode.21_3" nphases=3 basefreq=60 r1=1.4418 x1=0.0833 units=km normamps=200.00
New "Linecode.21_4" nphases=4 basefreq=60 r1=1.4418 x1=0.0833 units=km normamps=200.00

New "Linecode.22_1" nphases=1 basefreq=60 r1=2.2949 x1=0.0821 units=km normamps=152.00
New "Linecode.22_2" nphases=2 basefreq=60 r1=2.2949 x1=0.0821 units=km normamps=152.00
New "Linecode.22_3" nphases=3 basefreq=60 r1=2.2949 x1=0.0821 units=km normamps=152.00
New "Linecode.22_4" nphases=4 basefreq=60 r1=2.2949 x1=0.0821 units=km normamps=152.00

New "Linecode.23_1" nphases=1 basefreq=60 r1=0.5323 x1=0.0800 units=km normamps=235.20
New "Linecode.23_2" nphases=2 basefreq=60 r1=0.5323 x1=0.0800 units=km normamps=235.20
New "Linecode.23_3" nphases=3 basefreq=60 r1=0.5323 x1=0.0800 units=km normamps=235.20
New "Linecode.23_4" nphases=4 basefreq=60 r1=0.5323 x1=0.0800 units=km normamps=235.20

New "Linecode.24_1" nphases=1 basefreq=60 r1=2.2949 x1=0.0821 units=km normamps=152.00
New "Linecode.24_2" nphases=2 basefreq=60 r1=2.2949 x1=0.0821 units=km normamps=152.00
New "Linecode.24_3" nphases=3 basefreq=60 r1=2.2949 x1=0.0821 units=km normamps=152.00
New "Linecode.24_4" nphases=4 basefreq=60 r1=2.2949 x1=0.0821 units=km normamps=152.00

New "Linecode.25_1" nphases=1 basefreq=60 r1=0.5323 x1=0.0800 units=km normamps=235.20
New "Linecode.25_2" nphases=2 basefreq=60 r1=0.5323 x1=0.0800 units=km normamps=235.20
New "Linecode.25_3" nphases=3 basefreq=60 r1=0.5323 x1=0.0800 units=km normamps=235.20
New "Linecode.25_4" nphases=4 basefreq=60 r1=0.5323 x1=0.0800 units=km normamps=235.20

New "Linecode.26_1" nphases=1 basefreq=60 r1=2.2949 x1=0.0821 units=km normamps=152.00
New "Linecode.26_2" nphases=2 basefreq=60 r1=2.2949 x1=0.0821 units=km normamps=152.00
New "Linecode.26_3" nphases=3 basefreq=60 r1=2.2949 x1=0.0821 units=km normamps=152.00
New "Linecode.26_4" nphases=4 basefreq=60 r1=2.2949 x1=0.0821 units=km normamps=152.00

New "Linecode.27_1" nphases=1 basefreq=60 r1=1.0429 x1=0.0818 units=km normamps=176.00
New "Linecode.27_2" nphases=2 basefreq=60 r1=1.0429 x1=0.0818 units=km normamps=176.00
New "Linecode.27_3" nphases=3 basefreq=60 r1=1.0429 x1=0.0818 units=km normamps=176.00
New "Linecode.27_4" nphases=4 basefreq=60 r1=1.0429 x1=0.0818 units=km normamps=176.00

New "Linecode.28_1" nphases=1 basefreq=60 r1=0.7702 x1=0.0797 units=km normamps=256.00
New "Linecode.28_2" nphases=2 basefreq=60 r1=0.7702 x1=0.0797 units=km normamps=256.00
New "Linecode.28_3" nphases=3 basefreq=60 r1=0.7702 x1=0.0797 units=km normamps=256.00
New "Linecode.28_4" nphases=4 basefreq=60 r1=0.7702 x1=0.0797 units=km normamps=256.00

New "Linecode.29_1" nphases=1 basefreq=60 r1=0.5323 x1=0.0800 units=km normamps=235.20
New "Linecode.29_2" nphases=2 basefreq=60 r1=0.5323 x1=0.0800 units=km normamps=235.20
New "Linecode.29_3" nphases=3 basefreq=60 r1=0.5323 x1=0.0800 units=km normamps=235.20
New "Linecode.29_4" nphases=4 basefreq=60 r1=0.5323 x1=0.0800 units=km normamps=235.20

New "Linecode.30_1" nphases=1 basefreq=60 r1=1.0429 x1=0.0818 units=km normamps=176.00
New "Linecode.30_2" nphases=2 basefreq=60 r1=1.0429 x1=0.0818 units=km normamps=176.00
New "Linecode.30_3" nphases=3 basefreq=60 r1=1.0429 x1=0.0818 units=km normamps=176.00
New "Linecode.30_4" nphases=4 basefreq=60 r1=1.0429 x1=0.0818 units=km normamps=176.00

New "Linecode.31_1" nphases=1 basefreq=60 r1=3.7006 x1=0.0820 units=km normamps=113.60
New "Linecode.31_2" nphases=2 basefreq=60 r1=3.7006 x1=0.0820 units=km normamps=113.60
New "Linecode.31_3" nphases=3 basefreq=60 r1=3.7006 x1=0.0820 units=km normamps=113.60
New "Linecode.31_4" nphases=4 basefreq=60 r1=3.7006 x1=0.0820 units=km normamps=113.60

New "Linecode.32_1" nphases=1 basefreq=60 r1=0.5323 x1=0.0800 units=km normamps=235.20
New "Linecode.32_2" nphases=2 basefreq=60 r1=0.5323 x1=0.0800 units=km normamps=235.20
New "Linecode.32_3" nphases=3 basefreq=60 r1=0.5323 x1=0.0800 units=km normamps=235.20
New "Linecode.32_4" nphases=4 basefreq=60 r1=0.5323 x1=0.0800 units=km normamps=235.20

New "Linecode.33_1" nphases=1 basefreq=60 r1=0.7702 x1=0.0797 units=km normamps=256.00
New "Linecode.33_2" nphases=2 basefreq=60 r1=0.7702 x1=0.0797 units=km normamps=256.00
New "Linecode.33_3" nphases=3 basefreq=60 r1=0.7702 x1=0.0797 units=km normamps=256.00
New "Linecode.33_4" nphases=4 basefreq=60 r1=0.7702 x1=0.0797 units=km normamps=256.00

New "Linecode.34_1" nphases=1 basefreq=60 r1=0.3040 x1=0.0911 units=km normamps=321.60
New "Linecode.34_2" nphases=2 basefreq=60 r1=0.3040 x1=0.0911 units=km normamps=321.60
New "Linecode.34_3" nphases=3 basefreq=60 r1=0.3040 x1=0.0911 units=km normamps=321.60
New "Linecode.34_4" nphases=4 basefreq=60 r1=0.3040 x1=0.0911 units=km normamps=321.60

New "Linecode.35_1" nphases=1 basefreq=60 r1=0.9750 x1=0.5244 units=km normamps=265.20
New "Linecode.35_2" nphases=2 basefreq=60 r1=0.9750 x1=0.5244 units=km normamps=265.20
New "Linecode.35_3" nphases=3 basefreq=60 r1=0.9750 x1=0.5244 units=km normamps=265.20
New "Linecode.35_4" nphases=4 basefreq=60 r1=0.9750 x1=0.5244 units=km normamps=265.20

New "Linecode.36_1" nphases=1 basefreq=60 r1=0.8054 x1=0.2687 units=km normamps=183.30
New "Linecode.36_2" nphases=2 basefreq=60 r1=0.8054 x1=0.2687 units=km normamps=183.30
New "Linecode.36_3" nphases=3 basefreq=60 r1=0.8054 x1=0.2687 units=km normamps=183.30
New "Linecode.36_4" nphases=4 basefreq=60 r1=0.8054 x1=0.2687 units=km normamps=183.30

New "Linecode.37_1" nphases=1 basefreq=60 r1=0.1500 x1=0.0890 units=km normamps=290.00
New "Linecode.37_2" nphases=2 basefreq=60 r1=0.1500 x1=0.0890 units=km normamps=290.00
New "Linecode.37_3" nphases=3 basefreq=60 r1=0.1500 x1=0.0890 units=km normamps=290.00
New "Linecode.37_4" nphases=4 basefreq=60 r1=0.1500 x1=0.0890 units=km normamps=290.00

New "Linecode.38_1" nphases=1 basefreq=60 r1=0.9750 x1=0.5244 units=km normamps=265.20
New "Linecode.38_2" nphases=2 basefreq=60 r1=0.9750 x1=0.5244 units=km normamps=265.20
New "Linecode.38_3" nphases=3 basefreq=60 r1=0.9750 x1=0.5244 units=km normamps=265.20
New "Linecode.38_4" nphases=4 basefreq=60 r1=0.9750 x1=0.5244 units=km normamps=265.20

New "Linecode.39_1" nphases=1 basefreq=60 r1=0.9750 x1=0.5244 units=km normamps=265.20
New "Linecode.39_2" nphases=2 basefreq=60 r1=0.9750 x1=0.5244 units=km normamps=265.20
New "Linecode.39_3" nphases=3 basefreq=60 r1=0.9750 x1=0.5244 units=km normamps=265.20
New "Linecode.39_4" nphases=4 basefreq=60 r1=0.9750 x1=0.5244 units=km normamps=265.20

New "Linecode.40_1" nphases=1 basefreq=60 r1=0.9750 x1=0.5244 units=km normamps=265.20
New "Linecode.40_2" nphases=2 basefreq=60 r1=0.9750 x1=0.5244 units=km normamps=265.20
New "Linecode.40_3" nphases=3 basefreq=60 r1=0.9750 x1=0.5244 units=km normamps=265.20
New "Linecode.40_4" nphases=4 basefreq=60 r1=0.9750 x1=0.5244 units=km normamps=265.20

New "Linecode.41_1" nphases=1 basefreq=60 r1=0.9750 x1=0.5244 units=km normamps=265.20
New "Linecode.41_2" nphases=2 basefreq=60 r1=0.9750 x1=0.5244 units=km normamps=265.20
New "Linecode.41_3" nphases=3 basefreq=60 r1=0.9750 x1=0.5244 units=km normamps=265.20
New "Linecode.41_4" nphases=4 basefreq=60 r1=0.9750 x1=0.5244 units=km normamps=265.20

New "Linecode.42_1" nphases=1 basefreq=60 r1=0.1500 x1=0.0890 units=km normamps=290.00
New "Linecode.42_2" nphases=2 basefreq=60 r1=0.1500 x1=0.0890 units=km normamps=290.00
New "Linecode.42_3" nphases=3 basefreq=60 r1=0.1500 x1=0.0890 units=km normamps=290.00
New "Linecode.42_4" nphases=4 basefreq=60 r1=0.1500 x1=0.0890 units=km normamps=290.00

New "Linecode.43_1" nphases=1 basefreq=60 r1=0.3257 x1=0.5911 units=km normamps=559.00
New "Linecode.43_2" nphases=2 basefreq=60 r1=0.3257 x1=0.5911 units=km normamps=559.00
New "Linecode.43_3" nphases=3 basefreq=60 r1=0.3257 x1=0.5911 units=km normamps=559.00
New "Linecode.43_4" nphases=4 basefreq=60 r1=0.3257 x1=0.5911 units=km normamps=559.00

New "Linecode.44_1" nphases=1 basefreq=60 r1=0.6500 x1=0.6310 units=km normamps=357.50
New "Linecode.44_2" nphases=2 basefreq=60 r1=0.6500 x1=0.6310 units=km normamps=357.50
New "Linecode.44_3" nphases=3 basefreq=60 r1=0.6500 x1=0.6310 units=km normamps=357.50
New "Linecode.44_4" nphases=4 basefreq=60 r1=0.6500 x1=0.6310 units=km normamps=357.50

New "Linecode.45_1" nphases=1 basefreq=60 r1=1.0429 x1=0.0818 units=km normamps=176.00
New "Linecode.45_2" nphases=2 basefreq=60 r1=1.0429 x1=0.0818 units=km normamps=176.00
New "Linecode.45_3" nphases=3 basefreq=60 r1=1.0429 x1=0.0818 units=km normamps=176.00
New "Linecode.45_4" nphases=4 basefreq=60 r1=1.0429 x1=0.0818 units=km normamps=176.00

New "Linecode.46_1" nphases=1 basefreq=60 r1=1.5510 x1=0.5207 units=km normamps=197.60
New "Linecode.46_2" nphases=2 basefreq=60 r1=1.5510 x1=0.5207 units=km normamps=197.60
New "Linecode.46_3" nphases=3 basefreq=60 r1=1.5510 x1=0.5207 units=km normamps=197.60
New "Linecode.46_4" nphases=4 basefreq=60 r1=1.5510 x1=0.5207 units=km normamps=197.60

New "Linecode.47_1" nphases=1 basefreq=60 r1=0.3250 x1=0.1199 units=km normamps=979.20
New "Linecode.47_2" nphases=2 basefreq=60 r1=0.3250 x1=0.1199 units=km normamps=979.20
New "Linecode.47_3" nphases=3 basefreq=60 r1=0.3250 x1=0.1199 units=km normamps=979.20
New "Linecode.47_4" nphases=4 basefreq=60 r1=0.3250 x1=0.1199 units=km normamps=979.20

New "Linecode.48_1" nphases=1 basefreq=60 r1=0.9750 x1=0.5244 units=km normamps=265.20
New "Linecode.48_2" nphases=2 basefreq=60 r1=0.9750 x1=0.5244 units=km normamps=265.20
New "Linecode.48_3" nphases=3 basefreq=60 r1=0.9750 x1=0.5244 units=km normamps=265.20
New "Linecode.48_4" nphases=4 basefreq=60 r1=0.9750 x1=0.5244 units=km normamps=265.20

New "Linecode.49_1" nphases=1 basefreq=60 r1=0.2110 x1=0.1767 units=km normamps=501.80
New "Linecode.49_2" nphases=2 basefreq=60 r1=0.2110 x1=0.1767 units=km normamps=501.80
New "Linecode.49_3" nphases=3 basefreq=60 r1=0.2110 x1=0.1767 units=km normamps=501.80
New "Linecode.49_4" nphases=4 basefreq=60 r1=0.2110 x1=0.1767 units=km normamps=501.80

New "Linecode.50_1" nphases=1 basefreq=60 r1=2.2949 x1=0.0821 units=km normamps=152.00
New "Linecode.50_2" nphases=2 basefreq=60 r1=2.2949 x1=0.0821 units=km normamps=152.00
New "Linecode.50_3" nphases=3 basefreq=60 r1=2.2949 x1=0.0821 units=km normamps=152.00
New "Linecode.50_4" nphases=4 basefreq=60 r1=2.2949 x1=0.0821 units=km normamps=152.00

New "Linecode.51_1" nphases=1 basefreq=60 r1=3.7006 x1=0.0820 units=km normamps=113.60
New "Linecode.51_2" nphases=2 basefreq=60 r1=3.7006 x1=0.0820 units=km normamps=113.60
New "Linecode.51_3" nphases=3 basefreq=60 r1=3.7006 x1=0.0820 units=km normamps=113.60
New "Linecode.51_4" nphases=4 basefreq=60 r1=3.7006 x1=0.0820 units=km normamps=113.60

New "Linecode.52_1" nphases=1 basefreq=60 r1=0.5323 x1=0.0800 units=km normamps=235.20
New "Linecode.52_2" nphases=2 basefreq=60 r1=0.5323 x1=0.0800 units=km normamps=235.20
New "Linecode.52_3" nphases=3 basefreq=60 r1=0.5323 x1=0.0800 units=km normamps=235.20
New "Linecode.52_4" nphases=4 basefreq=60 r1=0.5323 x1=0.0800 units=km normamps=235.20

New "Linecode.53_1" nphases=1 basefreq=60 r1=0.3040 x1=0.0911 units=km normamps=321.60
New "Linecode.53_2" nphases=2 basefreq=60 r1=0.3040 x1=0.0911 units=km normamps=321.60
New "Linecode.53_3" nphases=3 basefreq=60 r1=0.3040 x1=0.0911 units=km normamps=321.60
New "Linecode.53_4" nphases=4 basefreq=60 r1=0.3040 x1=0.0911 units=km normamps=321.60

New "Linecode.54_1" nphases=1 basefreq=60 r1=0.1464 x1=0.1205 units=km normamps=241.80
New "Linecode.54_2" nphases=2 basefreq=60 r1=0.1464 x1=0.1205 units=km normamps=241.80
New "Linecode.54_3" nphases=3 basefreq=60 r1=0.1464 x1=0.1205 units=km normamps=241.80
New "Linecode.54_4" nphases=4 basefreq=60 r1=0.1464 x1=0.1205 units=km normamps=241.80

New "Linecode.55_1" nphases=1 basefreq=60 r1=2.2949 x1=0.0821 units=km normamps=152.00
New "Linecode.55_2" nphases=2 basefreq=60 r1=2.2949 x1=0.0821 units=km normamps=152.00
New "Linecode.55_3" nphases=3 basefreq=60 r1=2.2949 x1=0.0821 units=km normamps=152.00
New "Linecode.55_4" nphases=4 basefreq=60 r1=2.2949 x1=0.0821 units=km normamps=152.00

New "Linecode.56_1" nphases=1 basefreq=60 r1=0.3040 x1=0.0911 units=km normamps=321.60
New "Linecode.56_2" nphases=2 basefreq=60 r1=0.3040 x1=0.0911 units=km normamps=321.60
New "Linecode.56_3" nphases=3 basefreq=60 r1=0.3040 x1=0.0911 units=km normamps=321.60
New "Linecode.56_4" nphases=4 basefreq=60 r1=0.3040 x1=0.0911 units=km normamps=321.60

New "Linecode.57_1" nphases=1 basefreq=60 r1=0.9750 x1=0.5244 units=km normamps=265.20
New "Linecode.57_2" nphases=2 basefreq=60 r1=0.9750 x1=0.5244 units=km normamps=265.20
New "Linecode.57_3" nphases=3 basefreq=60 r1=0.9750 x1=0.5244 units=km normamps=265.20
New "Linecode.57_4" nphases=4 basefreq=60 r1=0.9750 x1=0.5244 units=km normamps=265.20

New "Linecode.58_1" nphases=1 basefreq=60 r1=2.2949 x1=0.0821 units=km normamps=152.00
New "Linecode.58_2" nphases=2 basefreq=60 r1=2.2949 x1=0.0821 units=km normamps=152.00
New "Linecode.58_3" nphases=3 basefreq=60 r1=2.2949 x1=0.0821 units=km normamps=152.00
New "Linecode.58_4" nphases=4 basefreq=60 r1=2.2949 x1=0.0821 units=km normamps=152.00

New "Linecode.59_1" nphases=1 basefreq=60 r1=0.3257 x1=0.5911 units=km normamps=559.00
New "Linecode.59_2" nphases=2 basefreq=60 r1=0.3257 x1=0.5911 units=km normamps=559.00
New "Linecode.59_3" nphases=3 basefreq=60 r1=0.3257 x1=0.5911 units=km normamps=559.00
New "Linecode.59_4" nphases=4 basefreq=60 r1=0.3257 x1=0.5911 units=km normamps=559.00

New "Linecode.60_1" nphases=1 basefreq=60 r1=2.2949 x1=0.0821 units=km normamps=152.00
New "Linecode.60_2" nphases=2 basefreq=60 r1=2.2949 x1=0.0821 units=km normamps=152.00
New "Linecode.60_3" nphases=3 basefreq=60 r1=2.2949 x1=0.0821 units=km normamps=152.00
New "Linecode.60_4" nphases=4 basefreq=60 r1=2.2949 x1=0.0821 units=km normamps=152.00

New "Linecode.61_1" nphases=1 basefreq=60 r1=1.0429 x1=0.0818 units=km normamps=176.00
New "Linecode.61_2" nphases=2 basefreq=60 r1=1.0429 x1=0.0818 units=km normamps=176.00
New "Linecode.61_3" nphases=3 basefreq=60 r1=1.0429 x1=0.0818 units=km normamps=176.00
New "Linecode.61_4" nphases=4 basefreq=60 r1=1.0429 x1=0.0818 units=km normamps=176.00

New "Linecode.62_1" nphases=1 basefreq=60 r1=0.3250 x1=0.1199 units=km normamps=979.20
New "Linecode.62_2" nphases=2 basefreq=60 r1=0.3250 x1=0.1199 units=km normamps=979.20
New "Linecode.62_3" nphases=3 basefreq=60 r1=0.3250 x1=0.1199 units=km normamps=979.20
New "Linecode.62_4" nphases=4 basefreq=60 r1=0.3250 x1=0.1199 units=km normamps=979.20

New "Linecode.63_1" nphases=1 basefreq=60 r1=0.1500 x1=0.0890 units=km normamps=290.00
New "Linecode.63_2" nphases=2 basefreq=60 r1=0.1500 x1=0.0890 units=km normamps=290.00
New "Linecode.63_3" nphases=3 basefreq=60 r1=0.1500 x1=0.0890 units=km normamps=290.00
New "Linecode.63_4" nphases=4 basefreq=60 r1=0.1500 x1=0.0890 units=km normamps=290.00

New "Linecode.64_1" nphases=1 basefreq=60 r1=0.3040 x1=0.0911 units=km normamps=321.60
New "Linecode.64_2" nphases=2 basefreq=60 r1=0.3040 x1=0.0911 units=km normamps=321.60
New "Linecode.64_3" nphases=3 basefreq=60 r1=0.3040 x1=0.0911 units=km normamps=321.60
New "Linecode.64_4" nphases=4 basefreq=60 r1=0.3040 x1=0.0911 units=km normamps=321.60

New "Linecode.65_1" nphases=1 basefreq=60 r1=0.9750 x1=0.5244 units=km normamps=265.20
New "Linecode.65_2" nphases=2 basefreq=60 r1=0.9750 x1=0.5244 units=km normamps=265.20
New "Linecode.65_3" nphases=3 basefreq=60 r1=0.9750 x1=0.5244 units=km normamps=265.20
New "Linecode.65_4" nphases=4 basefreq=60 r1=0.9750 x1=0.5244 units=km normamps=265.20

New "Linecode.66_1" nphases=1 basefreq=60 r1=1.4418 x1=0.0833 units=km normamps=200.00
New "Linecode.66_2" nphases=2 basefreq=60 r1=1.4418 x1=0.0833 units=km normamps=200.00
New "Linecode.66_3" nphases=3 basefreq=60 r1=1.4418 x1=0.0833 units=km normamps=200.00
New "Linecode.66_4" nphases=4 basefreq=60 r1=1.4418 x1=0.0833 units=km normamps=200.00

New "Linecode.67_1" nphases=1 basefreq=60 r1=2.2949 x1=0.0821 units=km normamps=152.00
New "Linecode.67_2" nphases=2 basefreq=60 r1=2.2949 x1=0.0821 units=km normamps=152.00
New "Linecode.67_3" nphases=3 basefreq=60 r1=2.2949 x1=0.0821 units=km normamps=152.00
New "Linecode.67_4" nphases=4 basefreq=60 r1=2.2949 x1=0.0821 units=km normamps=152.00

New "Linecode.68_1" nphases=1 basefreq=60 r1=0.5323 x1=0.0800 units=km normamps=235.20
New "Linecode.68_2" nphases=2 basefreq=60 r1=0.5323 x1=0.0800 units=km normamps=235.20
New "Linecode.68_3" nphases=3 basefreq=60 r1=0.5323 x1=0.0800 units=km normamps=235.20
New "Linecode.68_4" nphases=4 basefreq=60 r1=0.5323 x1=0.0800 units=km normamps=235.20

New "Linecode.69_1" nphases=1 basefreq=60 r1=0.5323 x1=0.0800 units=km normamps=235.20
New "Linecode.69_2" nphases=2 basefreq=60 r1=0.5323 x1=0.0800 units=km normamps=235.20
New "Linecode.69_3" nphases=3 basefreq=60 r1=0.5323 x1=0.0800 units=km normamps=235.20
New "Linecode.69_4" nphases=4 basefreq=60 r1=0.5323 x1=0.0800 units=km normamps=235.20

New "Linecode.70_1" nphases=1 basefreq=60 r1=0.1500 x1=0.0890 units=km normamps=290.00
New "Linecode.70_2" nphases=2 basefreq=60 r1=0.1500 x1=0.0890 units=km normamps=290.00
New "Linecode.70_3" nphases=3 basefreq=60 r1=0.1500 x1=0.0890 units=km normamps=290.00
New "Linecode.70_4" nphases=4 basefreq=60 r1=0.1500 x1=0.0890 units=km normamps=290.00

New "Linecode.71_1" nphases=1 basefreq=60 r1=0.9750 x1=0.5244 units=km normamps=265.20
New "Linecode.71_2" nphases=2 basefreq=60 r1=0.9750 x1=0.5244 units=km normamps=265.20
New "Linecode.71_3" nphases=3 basefreq=60 r1=0.9750 x1=0.5244 units=km normamps=265.20
New "Linecode.71_4" nphases=4 basefreq=60 r1=0.9750 x1=0.5244 units=km normamps=265.20

New "Linecode.72_1" nphases=1 basefreq=60 r1=2.2949 x1=0.0821 units=km normamps=152.00
New "Linecode.72_2" nphases=2 basefreq=60 r1=2.2949 x1=0.0821 units=km normamps=152.00
New "Linecode.72_3" nphases=3 basefreq=60 r1=2.2949 x1=0.0821 units=km normamps=152.00
New "Linecode.72_4" nphases=4 basefreq=60 r1=2.2949 x1=0.0821 units=km normamps=152.00

New "Linecode.73_1" nphases=1 basefreq=60 r1=2.2949 x1=0.0821 units=km normamps=152.00
New "Linecode.73_2" nphases=2 basefreq=60 r1=2.2949 x1=0.0821 units=km normamps=152.00
New "Linecode.73_3" nphases=3 basefreq=60 r1=2.2949 x1=0.0821 units=km normamps=152.00
New "Linecode.73_4" nphases=4 basefreq=60 r1=2.2949 x1=0.0821 units=km normamps=152.00

New "Linecode.74_1" nphases=1 basefreq=60 r1=0.5323 x1=0.0800 units=km normamps=235.20
New "Linecode.74_2" nphases=2 basefreq=60 r1=0.5323 x1=0.0800 units=km normamps=235.20
New "Linecode.74_3" nphases=3 basefreq=60 r1=0.5323 x1=0.0800 units=km normamps=235.20
New "Linecode.74_4" nphases=4 basefreq=60 r1=0.5323 x1=0.0800 units=km normamps=235.20

New "Linecode.75_1" nphases=1 basefreq=60 r1=0.4019 x1=0.6855 units=km normamps=475.80
New "Linecode.75_2" nphases=2 basefreq=60 r1=0.4019 x1=0.6855 units=km normamps=475.80
New "Linecode.75_3" nphases=3 basefreq=60 r1=0.4019 x1=0.6855 units=km normamps=475.80
New "Linecode.75_4" nphases=4 basefreq=60 r1=0.4019 x1=0.6855 units=km normamps=475.80

New "Linecode.76_1" nphases=1 basefreq=60 r1=0.0860 x1=0.1199 units=km normamps=1262.40
New "Linecode.76_2" nphases=2 basefreq=60 r1=0.0860 x1=0.1199 units=km normamps=1262.40
New "Linecode.76_3" nphases=3 basefreq=60 r1=0.0860 x1=0.1199 units=km normamps=1262.40
New "Linecode.76_4" nphases=4 basefreq=60 r1=0.0860 x1=0.1199 units=km normamps=1262.40

New "Linecode.77_1" nphases=1 basefreq=60 r1=0.2006 x1=0.7049 units=km normamps=748.80
New "Linecode.77_2" nphases=2 basefreq=60 r1=0.2006 x1=0.7049 units=km normamps=748.80
New "Linecode.77_3" nphases=3 basefreq=60 r1=0.2006 x1=0.7049 units=km normamps=748.80
New "Linecode.77_4" nphases=4 basefreq=60 r1=0.2006 x1=0.7049 units=km normamps=748.80

New "Linecode.78_1" nphases=1 basefreq=60 r1=0.6500 x1=0.6310 units=km normamps=357.50
New "Linecode.78_2" nphases=2 basefreq=60 r1=0.6500 x1=0.6310 units=km normamps=357.50
New "Linecode.78_3" nphases=3 basefreq=60 r1=0.6500 x1=0.6310 units=km normamps=357.50
New "Linecode.78_4" nphases=4 basefreq=60 r1=0.6500 x1=0.6310 units=km normamps=357.50

New "Linecode.79_1" nphases=1 basefreq=60 r1=1.4418 x1=0.0833 units=km normamps=200.00
New "Linecode.79_2" nphases=2 basefreq=60 r1=1.4418 x1=0.0833 units=km normamps=200.00
New "Linecode.79_3" nphases=3 basefreq=60 r1=1.4418 x1=0.0833 units=km normamps=200.00
New "Linecode.79_4" nphases=4 basefreq=60 r1=1.4418 x1=0.0833 units=km normamps=200.00

New "Linecode.80_1" nphases=1 basefreq=60 r1=2.2949 x1=0.0821 units=km normamps=152.00
New "Linecode.80_2" nphases=2 basefreq=60 r1=2.2949 x1=0.0821 units=km normamps=152.00
New "Linecode.80_3" nphases=3 basefreq=60 r1=2.2949 x1=0.0821 units=km normamps=152.00
New "Linecode.80_4" nphases=4 basefreq=60 r1=2.2949 x1=0.0821 units=km normamps=152.00

New "Linecode.81_1" nphases=1 basefreq=60 r1=0.0860 x1=0.1199 units=km normamps=1262.40
New "Linecode.81_2" nphases=2 basefreq=60 r1=0.0860 x1=0.1199 units=km normamps=1262.40
New "Linecode.81_3" nphases=3 basefreq=60 r1=0.0860 x1=0.1199 units=km normamps=1262.40
New "Linecode.81_4" nphases=4 basefreq=60 r1=0.0860 x1=0.1199 units=km normamps=1262.40

New "Linecode.82_1" nphases=1 basefreq=60 r1=0.1500 x1=0.0890 units=km normamps=290.00
New "Linecode.82_2" nphases=2 basefreq=60 r1=0.1500 x1=0.0890 units=km normamps=290.00
New "Linecode.82_3" nphases=3 basefreq=60 r1=0.1500 x1=0.0890 units=km normamps=290.00
New "Linecode.82_4" nphases=4 basefreq=60 r1=0.1500 x1=0.0890 units=km normamps=290.00

New "Linecode.83_1" nphases=1 basefreq=60 r1=2.6474 x1=0.4027 units=km normamps=109.20
New "Linecode.83_2" nphases=2 basefreq=60 r1=2.6474 x1=0.4027 units=km normamps=109.20
New "Linecode.83_3" nphases=3 basefreq=60 r1=2.6474 x1=0.4027 units=km normamps=109.20
New "Linecode.83_4" nphases=4 basefreq=60 r1=2.6474 x1=0.4027 units=km normamps=109.20

New "Linecode.84_1" nphases=1 basefreq=60 r1=2.2949 x1=0.0821 units=km normamps=152.00
New "Linecode.84_2" nphases=2 basefreq=60 r1=2.2949 x1=0.0821 units=km normamps=152.00
New "Linecode.84_3" nphases=3 basefreq=60 r1=2.2949 x1=0.0821 units=km normamps=152.00
New "Linecode.84_4" nphases=4 basefreq=60 r1=2.2949 x1=0.0821 units=km normamps=152.00

New "Linecode.85_1" nphases=1 basefreq=60 r1=0.9750 x1=0.5244 units=km normamps=265.20
New "Linecode.85_2" nphases=2 basefreq=60 r1=0.9750 x1=0.5244 units=km normamps=265.20
New "Linecode.85_3" nphases=3 basefreq=60 r1=0.9750 x1=0.5244 units=km normamps=265.20
New "Linecode.85_4" nphases=4 basefreq=60 r1=0.9750 x1=0.5244 units=km normamps=265.20

New "Linecode.86_1" nphases=1 basefreq=60 r1=0.8054 x1=0.2687 units=km normamps=183.30
New "Linecode.86_2" nphases=2 basefreq=60 r1=0.8054 x1=0.2687 units=km normamps=183.30
New "Linecode.86_3" nphases=3 basefreq=60 r1=0.8054 x1=0.2687 units=km normamps=183.30
New "Linecode.86_4" nphases=4 basefreq=60 r1=0.8054 x1=0.2687 units=km normamps=183.30

New "Linecode.87_1" nphases=1 basefreq=60 r1=2.2949 x1=0.0821 units=km normamps=152.00
New "Linecode.87_2" nphases=2 basefreq=60 r1=2.2949 x1=0.0821 units=km normamps=152.00
New "Linecode.87_3" nphases=3 basefreq=60 r1=2.2949 x1=0.0821 units=km normamps=152.00
New "Linecode.87_4" nphases=4 basefreq=60 r1=2.2949 x1=0.0821 units=km normamps=152.00

New "Linecode.88_1" nphases=1 basefreq=60 r1=2.2949 x1=0.0821 units=km normamps=152.00
New "Linecode.88_2" nphases=2 basefreq=60 r1=2.2949 x1=0.0821 units=km normamps=152.00
New "Linecode.88_3" nphases=3 basefreq=60 r1=2.2949 x1=0.0821 units=km normamps=152.00
New "Linecode.88_4" nphases=4 basefreq=60 r1=2.2949 x1=0.0821 units=km normamps=152.00

New "Linecode.89_1" nphases=1 basefreq=60 r1=2.2949 x1=0.0821 units=km normamps=152.00
New "Linecode.89_2" nphases=2 basefreq=60 r1=2.2949 x1=0.0821 units=km normamps=152.00
New "Linecode.89_3" nphases=3 basefreq=60 r1=2.2949 x1=0.0821 units=km normamps=152.00
New "Linecode.89_4" nphases=4 basefreq=60 r1=2.2949 x1=0.0821 units=km normamps=152.00

New "Linecode.90_1" nphases=1 basefreq=60 r1=0.9750 x1=0.5244 units=km normamps=265.20
New "Linecode.90_2" nphases=2 basefreq=60 r1=0.9750 x1=0.5244 units=km normamps=265.20
New "Linecode.90_3" nphases=3 basefreq=60 r1=0.9750 x1=0.5244 units=km normamps=265.20
New "Linecode.90_4" nphases=4 basefreq=60 r1=0.9750 x1=0.5244 units=km normamps=265.20

New "Linecode.91_1" nphases=1 basefreq=60 r1=0.0860 x1=0.1199 units=km normamps=1262.40
New "Linecode.91_2" nphases=2 basefreq=60 r1=0.0860 x1=0.1199 units=km normamps=1262.40
New "Linecode.91_3" nphases=3 basefreq=60 r1=0.0860 x1=0.1199 units=km normamps=1262.40
New "Linecode.91_4" nphases=4 basefreq=60 r1=0.0860 x1=0.1199 units=km normamps=1262.40

New "Linecode.92_1" nphases=1 basefreq=60 r1=0.1500 x1=0.0890 units=km normamps=290.00
New "Linecode.92_2" nphases=2 basefreq=60 r1=0.1500 x1=0.0890 units=km normamps=290.00
New "Linecode.92_3" nphases=3 basefreq=60 r1=0.1500 x1=0.0890 units=km normamps=290.00
New "Linecode.92_4" nphases=4 basefreq=60 r1=0.1500 x1=0.0890 units=km normamps=290.00

New "Linecode.93_1" nphases=1 basefreq=60 r1=0.7702 x1=0.0797 units=km normamps=256.00
New "Linecode.93_2" nphases=2 basefreq=60 r1=0.7702 x1=0.0797 units=km normamps=256.00
New "Linecode.93_3" nphases=3 basefreq=60 r1=0.7702 x1=0.0797 units=km normamps=256.00
New "Linecode.93_4" nphases=4 basefreq=60 r1=0.7702 x1=0.0797 units=km normamps=256.00

New "Linecode.94_1" nphases=1 basefreq=60 r1=0.9750 x1=0.5244 units=km normamps=265.20
New "Linecode.94_2" nphases=2 basefreq=60 r1=0.9750 x1=0.5244 units=km normamps=265.20
New "Linecode.94_3" nphases=3 basefreq=60 r1=0.9750 x1=0.5244 units=km normamps=265.20
New "Linecode.94_4" nphases=4 basefreq=60 r1=0.9750 x1=0.5244 units=km normamps=265.20

New "Linecode.95_1" nphases=1 basefreq=60 r1=0.2110 x1=0.1767 units=km normamps=501.80
New "Linecode.95_2" nphases=2 basefreq=60 r1=0.2110 x1=0.1767 units=km normamps=501.80
New "Linecode.95_3" nphases=3 basefreq=60 r1=0.2110 x1=0.1767 units=km normamps=501.80
New "Linecode.95_4" nphases=4 basefreq=60 r1=0.2110 x1=0.1767 units=km normamps=501.80

New "Linecode.96_1" nphases=1 basefreq=60 r1=0.8054 x1=0.2687 units=km normamps=183.30
New "Linecode.96_2" nphases=2 basefreq=60 r1=0.8054 x1=0.2687 units=km normamps=183.30
New "Linecode.96_3" nphases=3 basefreq=60 r1=0.8054 x1=0.2687 units=km normamps=183.30
New "Linecode.96_4" nphases=4 basefreq=60 r1=0.8054 x1=0.2687 units=km normamps=183.30

New "Linecode.97_1" nphases=1 basefreq=60 r1=0.1464 x1=0.1205 units=km normamps=241.80
New "Linecode.97_2" nphases=2 basefreq=60 r1=0.1464 x1=0.1205 units=km normamps=241.80
New "Linecode.97_3" nphases=3 basefreq=60 r1=0.1464 x1=0.1205 units=km normamps=241.80
New "Linecode.97_4" nphases=4 basefreq=60 r1=0.1464 x1=0.1205 units=km normamps=241.80

New "Linecode.98_1" nphases=1 basefreq=60 r1=0.2670 x1=0.1191 units=km normamps=353.60
New "Linecode.98_2" nphases=2 basefreq=60 r1=0.2670 x1=0.1191 units=km normamps=353.60
New "Linecode.98_3" nphases=3 basefreq=60 r1=0.2670 x1=0.1191 units=km normamps=353.60
New "Linecode.98_4" nphases=4 basefreq=60 r1=0.2670 x1=0.1191 units=km normamps=353.60

New "Linecode.99_1" nphases=1 basefreq=60 r1=2.2949 x1=0.0821 units=km normamps=152.00
New "Linecode.99_2" nphases=2 basefreq=60 r1=2.2949 x1=0.0821 units=km normamps=152.00
New "Linecode.99_3" nphases=3 basefreq=60 r1=2.2949 x1=0.0821 units=km normamps=152.00
New "Linecode.99_4" nphases=4 basefreq=60 r1=2.2949 x1=0.0821 units=km normamps=152.00

New "Linecode.100_1" nphases=1 basefreq=60 r1=2.2949 x1=0.0821 units=km normamps=152.00
New "Linecode.100_2" nphases=2 basefreq=60 r1=2.2949 x1=0.0821 units=km normamps=152.00
New "Linecode.100_3" nphases=3 basefreq=60 r1=2.2949 x1=0.0821 units=km normamps=152.00
New "Linecode.100_4" nphases=4 basefreq=60 r1=2.2949 x1=0.0821 units=km normamps=152.00

New "Linecode.101_1" nphases=1 basefreq=60 r1=1.5510 x1=0.5207 units=km normamps=197.60
New "Linecode.101_2" nphases=2 basefreq=60 r1=1.5510 x1=0.5207 units=km normamps=197.60
New "Linecode.101_3" nphases=3 basefreq=60 r1=1.5510 x1=0.5207 units=km normamps=197.60
New "Linecode.101_4" nphases=4 basefreq=60 r1=1.5510 x1=0.5207 units=km normamps=197.60

New "Linecode.102_1" nphases=1 basefreq=60 r1=0.1675 x1=0.0461 units=km normamps=819.20
New "Linecode.102_2" nphases=2 basefreq=60 r1=0.1675 x1=0.0461 units=km normamps=819.20
New "Linecode.102_3" nphases=3 basefreq=60 r1=0.1675 x1=0.0461 units=km normamps=819.20
New "Linecode.102_4" nphases=4 basefreq=60 r1=0.1675 x1=0.0461 units=km normamps=819.20

New "Linecode.103_1" nphases=1 basefreq=60 r1=0.9750 x1=0.5244 units=km normamps=265.20
New "Linecode.103_2" nphases=2 basefreq=60 r1=0.9750 x1=0.5244 units=km normamps=265.20
New "Linecode.103_3" nphases=3 basefreq=60 r1=0.9750 x1=0.5244 units=km normamps=265.20
New "Linecode.103_4" nphases=4 basefreq=60 r1=0.9750 x1=0.5244 units=km normamps=265.20

New "Linecode.104_1" nphases=1 basefreq=60 r1=0.9750 x1=0.5244 units=km normamps=265.20
New "Linecode.104_2" nphases=2 basefreq=60 r1=0.9750 x1=0.5244 units=km normamps=265.20
New "Linecode.104_3" nphases=3 basefreq=60 r1=0.9750 x1=0.5244 units=km normamps=265.20
New "Linecode.104_4" nphases=4 basefreq=60 r1=0.9750 x1=0.5244 units=km normamps=265.20

New "Linecode.105_1" nphases=1 basefreq=60 r1=2.2949 x1=0.0821 units=km normamps=152.00
New "Linecode.105_2" nphases=2 basefreq=60 r1=2.2949 x1=0.0821 units=km normamps=152.00
New "Linecode.105_3" nphases=3 basefreq=60 r1=2.2949 x1=0.0821 units=km normamps=152.00
New "Linecode.105_4" nphases=4 basefreq=60 r1=2.2949 x1=0.0821 units=km normamps=152.00

New "Linecode.106_1" nphases=1 basefreq=60 r1=1.0429 x1=0.0818 units=km normamps=128.70
New "Linecode.106_2" nphases=2 basefreq=60 r1=1.0429 x1=0.0818 units=km normamps=128.70
New "Linecode.106_3" nphases=3 basefreq=60 r1=1.0429 x1=0.0818 units=km normamps=128.70
New "Linecode.106_4" nphases=4 basefreq=60 r1=1.0429 x1=0.0818 units=km normamps=128.70

New "Linecode.107_1" nphases=1 basefreq=60 r1=0.1464 x1=0.1205 units=km normamps=241.80
New "Linecode.107_2" nphases=2 basefreq=60 r1=0.1464 x1=0.1205 units=km normamps=241.80
New "Linecode.107_3" nphases=3 basefreq=60 r1=0.1464 x1=0.1205 units=km normamps=241.80
New "Linecode.107_4" nphases=4 basefreq=60 r1=0.1464 x1=0.1205 units=km normamps=241.80

New "Linecode.108_1" nphases=1 basefreq=60 r1=2.2949 x1=0.0821 units=km normamps=152.00
New "Linecode.108_2" nphases=2 basefreq=60 r1=2.2949 x1=0.0821 units=km normamps=152.00
New "Linecode.108_3" nphases=3 basefreq=60 r1=2.2949 x1=0.0821 units=km normamps=152.00
New "Linecode.108_4" nphases=4 basefreq=60 r1=2.2949 x1=0.0821 units=km normamps=152.00

New "Linecode.109_1" nphases=1 basefreq=60 r1=3.7006 x1=0.0820 units=km normamps=113.60
New "Linecode.109_2" nphases=2 basefreq=60 r1=3.7006 x1=0.0820 units=km normamps=113.60
New "Linecode.109_3" nphases=3 basefreq=60 r1=3.7006 x1=0.0820 units=km normamps=113.60
New "Linecode.109_4" nphases=4 basefreq=60 r1=3.7006 x1=0.0820 units=km normamps=113.60

New "Linecode.110_1" nphases=1 basefreq=60 r1=0.3250 x1=0.1199 units=km normamps=979.20
New "Linecode.110_2" nphases=2 basefreq=60 r1=0.3250 x1=0.1199 units=km normamps=979.20
New "Linecode.110_3" nphases=3 basefreq=60 r1=0.3250 x1=0.1199 units=km normamps=979.20
New "Linecode.110_4" nphases=4 basefreq=60 r1=0.3250 x1=0.1199 units=km normamps=979.20

New "Linecode.111_1" nphases=1 basefreq=60 r1=0.3257 x1=0.5911 units=km normamps=559.00
New "Linecode.111_2" nphases=2 basefreq=60 r1=0.3257 x1=0.5911 units=km normamps=559.00
New "Linecode.111_3" nphases=3 basefreq=60 r1=0.3257 x1=0.5911 units=km normamps=559.00
New "Linecode.111_4" nphases=4 basefreq=60 r1=0.3257 x1=0.5911 units=km normamps=559.00

New "Linecode.112_1" nphases=1 basefreq=60 r1=0.9750 x1=0.5244 units=km normamps=265.20
New "Linecode.112_2" nphases=2 basefreq=60 r1=0.9750 x1=0.5244 units=km normamps=265.20
New "Linecode.112_3" nphases=3 basefreq=60 r1=0.9750 x1=0.5244 units=km normamps=265.20
New "Linecode.112_4" nphases=4 basefreq=60 r1=0.9750 x1=0.5244 units=km normamps=265.20

New "Linecode.113_1" nphases=1 basefreq=60 r1=0.1500 x1=0.0890 units=km normamps=290.00
New "Linecode.113_2" nphases=2 basefreq=60 r1=0.1500 x1=0.0890 units=km normamps=290.00
New "Linecode.113_3" nphases=3 basefreq=60 r1=0.1500 x1=0.0890 units=km normamps=290.00
New "Linecode.113_4" nphases=4 basefreq=60 r1=0.1500 x1=0.0890 units=km normamps=290.00

New "Linecode.114_1" nphases=1 basefreq=60 r1=0.9750 x1=0.5244 units=km normamps=265.20
New "Linecode.114_2" nphases=2 basefreq=60 r1=0.9750 x1=0.5244 units=km normamps=265.20
New "Linecode.114_3" nphases=3 basefreq=60 r1=0.9750 x1=0.5244 units=km normamps=265.20
New "Linecode.114_4" nphases=4 basefreq=60 r1=0.9750 x1=0.5244 units=km normamps=265.20

New "Linecode.115_1" nphases=1 basefreq=60 r1=0.1719 x1=0.1140 units=km normamps=796.80
New "Linecode.115_2" nphases=2 basefreq=60 r1=0.1719 x1=0.1140 units=km normamps=796.80
New "Linecode.115_3" nphases=3 basefreq=60 r1=0.1719 x1=0.1140 units=km normamps=796.80
New "Linecode.115_4" nphases=4 basefreq=60 r1=0.1719 x1=0.1140 units=km normamps=796.80

New "Linecode.116_1" nphases=1 basefreq=60 r1=0.5323 x1=0.0800 units=km normamps=235.20
New "Linecode.116_2" nphases=2 basefreq=60 r1=0.5323 x1=0.0800 units=km normamps=235.20
New "Linecode.116_3" nphases=3 basefreq=60 r1=0.5323 x1=0.0800 units=km normamps=235.20
New "Linecode.116_4" nphases=4 basefreq=60 r1=0.5323 x1=0.0800 units=km normamps=235.20

New "Linecode.117_1" nphases=1 basefreq=60 r1=0.9750 x1=0.5244 units=km normamps=265.20
New "Linecode.117_2" nphases=2 basefreq=60 r1=0.9750 x1=0.5244 units=km normamps=265.20
New "Linecode.117_3" nphases=3 basefreq=60 r1=0.9750 x1=0.5244 units=km normamps=265.20
New "Linecode.117_4" nphases=4 basefreq=60 r1=0.9750 x1=0.5244 units=km normamps=265.20

New "Linecode.118_1" nphases=1 basefreq=60 r1=0.2670 x1=0.1191 units=km normamps=353.60
New "Linecode.118_2" nphases=2 basefreq=60 r1=0.2670 x1=0.1191 units=km normamps=353.60
New "Linecode.118_3" nphases=3 basefreq=60 r1=0.2670 x1=0.1191 units=km normamps=353.60
New "Linecode.118_4" nphases=4 basefreq=60 r1=0.2670 x1=0.1191 units=km normamps=353.60

New "Linecode.119_1" nphases=1 basefreq=60 r1=0.8054 x1=0.2687 units=km normamps=183.30
New "Linecode.119_2" nphases=2 basefreq=60 r1=0.8054 x1=0.2687 units=km normamps=183.30
New "Linecode.119_3" nphases=3 basefreq=60 r1=0.8054 x1=0.2687 units=km normamps=183.30
New "Linecode.119_4" nphases=4 basefreq=60 r1=0.8054 x1=0.2687 units=km normamps=183.30

New "Linecode.120_1" nphases=1 basefreq=60 r1=0.8054 x1=0.2687 units=km normamps=183.30
New "Linecode.120_2" nphases=2 basefreq=60 r1=0.8054 x1=0.2687 units=km normamps=183.30
New "Linecode.120_3" nphases=3 basefreq=60 r1=0.8054 x1=0.2687 units=km normamps=183.30
New "Linecode.120_4" nphases=4 basefreq=60 r1=0.8054 x1=0.2687 units=km normamps=183.30

New "Linecode.121_1" nphases=1 basefreq=60 r1=0.0860 x1=0.1199 units=km normamps=1025.70
New "Linecode.121_2" nphases=2 basefreq=60 r1=0.0860 x1=0.1199 units=km normamps=1025.70
New "Linecode.121_3" nphases=3 basefreq=60 r1=0.0860 x1=0.1199 units=km normamps=1025.70
New "Linecode.121_4" nphases=4 basefreq=60 r1=0.0860 x1=0.1199 units=km normamps=1025.70

New "Linecode.122_1" nphases=1 basefreq=60 r1=0.5323 x1=0.0800 units=km normamps=288.00
New "Linecode.122_2" nphases=2 basefreq=60 r1=0.5323 x1=0.0800 units=km normamps=288.00
New "Linecode.122_3" nphases=3 basefreq=60 r1=0.5323 x1=0.0800 units=km normamps=288.00
New "Linecode.122_4" nphases=4 basefreq=60 r1=0.5323 x1=0.0800 units=km normamps=288.00

New "Linecode.123_1" nphases=1 basefreq=60 r1=0.8054 x1=0.2687 units=km normamps=183.30
New "Linecode.123_2" nphases=2 basefreq=60 r1=0.8054 x1=0.2687 units=km normamps=183.30
New "Linecode.123_3" nphases=3 basefreq=60 r1=0.8054 x1=0.2687 units=km normamps=183.30
New "Linecode.123_4" nphases=4 basefreq=60 r1=0.8054 x1=0.2687 units=km normamps=183.30

New "Linecode.124_1" nphases=1 basefreq=60 r1=2.2949 x1=0.0821 units=km normamps=152.00
New "Linecode.124_2" nphases=2 basefreq=60 r1=2.2949 x1=0.0821 units=km normamps=152.00
New "Linecode.124_3" nphases=3 basefreq=60 r1=2.2949 x1=0.0821 units=km normamps=152.00
New "Linecode.124_4" nphases=4 basefreq=60 r1=2.2949 x1=0.0821 units=km normamps=152.00

New "Linecode.125_1" nphases=1 basefreq=60 r1=0.5323 x1=0.0800 units=km normamps=235.20
New "Linecode.125_2" nphases=2 basefreq=60 r1=0.5323 x1=0.0800 units=km normamps=235.20
New "Linecode.125_3" nphases=3 basefreq=60 r1=0.5323 x1=0.0800 units=km normamps=235.20
New "Linecode.125_4" nphases=4 basefreq=60 r1=0.5323 x1=0.0800 units=km normamps=235.20

New "Linecode.126_1" nphases=1 basefreq=60 r1=2.2949 x1=0.0821 units=km normamps=152.00
New "Linecode.126_2" nphases=2 basefreq=60 r1=2.2949 x1=0.0821 units=km normamps=152.00
New "Linecode.126_3" nphases=3 basefreq=60 r1=2.2949 x1=0.0821 units=km normamps=152.00
New "Linecode.126_4" nphases=4 basefreq=60 r1=2.2949 x1=0.0821 units=km normamps=152.00

New "Linecode.127_1" nphases=1 basefreq=60 r1=1.0429 x1=0.0818 units=km normamps=128.70
New "Linecode.127_2" nphases=2 basefreq=60 r1=1.0429 x1=0.0818 units=km normamps=128.70
New "Linecode.127_3" nphases=3 basefreq=60 r1=1.0429 x1=0.0818 units=km normamps=128.70
New "Linecode.127_4" nphases=4 basefreq=60 r1=1.0429 x1=0.0818 units=km normamps=128.70

New "Linecode.129_1" nphases=1 basefreq=60 r1=0.9750 x1=0.5244 units=km normamps=265.20
New "Linecode.129_2" nphases=2 basefreq=60 r1=0.9750 x1=0.5244 units=km normamps=265.20
New "Linecode.129_3" nphases=3 basefreq=60 r1=0.9750 x1=0.5244 units=km normamps=265.20
New "Linecode.129_4" nphases=4 basefreq=60 r1=0.9750 x1=0.5244 units=km normamps=265.20

New "Linecode.130_1" nphases=1 basefreq=60 r1=0.1500 x1=0.0890 units=km normamps=290.00
New "Linecode.130_2" nphases=2 basefreq=60 r1=0.1500 x1=0.0890 units=km normamps=290.00
New "Linecode.130_3" nphases=3 basefreq=60 r1=0.1500 x1=0.0890 units=km normamps=290.00
New "Linecode.130_4" nphases=4 basefreq=60 r1=0.1500 x1=0.0890 units=km normamps=290.00

New "Linecode.131_1" nphases=1 basefreq=60 r1=0.1500 x1=0.0890 units=km normamps=290.00
New "Linecode.131_2" nphases=2 basefreq=60 r1=0.1500 x1=0.0890 units=km normamps=290.00
New "Linecode.131_3" nphases=3 basefreq=60 r1=0.1500 x1=0.0890 units=km normamps=290.00
New "Linecode.131_4" nphases=4 basefreq=60 r1=0.1500 x1=0.0890 units=km normamps=290.00

New "Linecode.132_1" nphases=1 basefreq=60 r1=0.8054 x1=0.2687 units=km normamps=183.30
New "Linecode.132_2" nphases=2 basefreq=60 r1=0.8054 x1=0.2687 units=km normamps=183.30
New "Linecode.132_3" nphases=3 basefreq=60 r1=0.8054 x1=0.2687 units=km normamps=183.30
New "Linecode.132_4" nphases=4 basefreq=60 r1=0.8054 x1=0.2687 units=km normamps=183.30

New "Linecode.133_1" nphases=1 basefreq=60 r1=2.2949 x1=0.0821 units=km normamps=152.00
New "Linecode.133_2" nphases=2 basefreq=60 r1=2.2949 x1=0.0821 units=km normamps=152.00
New "Linecode.133_3" nphases=3 basefreq=60 r1=2.2949 x1=0.0821 units=km normamps=152.00
New "Linecode.133_4" nphases=4 basefreq=60 r1=2.2949 x1=0.0821 units=km normamps=152.00

New "Linecode.134_1" nphases=1 basefreq=60 r1=0.9750 x1=0.5244 units=km normamps=265.20
New "Linecode.134_2" nphases=2 basefreq=60 r1=0.9750 x1=0.5244 units=km normamps=265.20
New "Linecode.134_3" nphases=3 basefreq=60 r1=0.9750 x1=0.5244 units=km normamps=265.20
New "Linecode.134_4" nphases=4 basefreq=60 r1=0.9750 x1=0.5244 units=km normamps=265.20

New "Linecode.135_1" nphases=1 basefreq=60 r1=2.2949 x1=0.0821 units=km normamps=152.00
New "Linecode.135_2" nphases=2 basefreq=60 r1=2.2949 x1=0.0821 units=km normamps=152.00
New "Linecode.135_3" nphases=3 basefreq=60 r1=2.2949 x1=0.0821 units=km normamps=152.00
New "Linecode.135_4" nphases=4 basefreq=60 r1=2.2949 x1=0.0821 units=km normamps=152.00

New "Linecode.136_1" nphases=1 basefreq=60 r1=0.6375 x1=0.3243 units=km normamps=261.30
New "Linecode.136_2" nphases=2 basefreq=60 r1=0.6375 x1=0.3243 units=km normamps=261.30
New "Linecode.136_3" nphases=3 basefreq=60 r1=0.6375 x1=0.3243 units=km normamps=261.30
New "Linecode.136_4" nphases=4 basefreq=60 r1=0.6375 x1=0.3243 units=km normamps=261.30

New "Linecode.137_1" nphases=1 basefreq=60 r1=0.3257 x1=0.5911 units=km normamps=559.00
New "Linecode.137_2" nphases=2 basefreq=60 r1=0.3257 x1=0.5911 units=km normamps=559.00
New "Linecode.137_3" nphases=3 basefreq=60 r1=0.3257 x1=0.5911 units=km normamps=559.00
New "Linecode.137_4" nphases=4 basefreq=60 r1=0.3257 x1=0.5911 units=km normamps=559.00

New "Linecode.138_1" nphases=1 basefreq=60 r1=0.1500 x1=0.0890 units=km normamps=290.00
New "Linecode.138_2" nphases=2 basefreq=60 r1=0.1500 x1=0.0890 units=km normamps=290.00
New "Linecode.138_3" nphases=3 basefreq=60 r1=0.1500 x1=0.0890 units=km normamps=290.00
New "Linecode.138_4" nphases=4 basefreq=60 r1=0.1500 x1=0.0890 units=km normamps=290.00

New "Linecode.139_1" nphases=1 basefreq=60 r1=0.9750 x1=0.5244 units=km normamps=265.20
New "Linecode.139_2" nphases=2 basefreq=60 r1=0.9750 x1=0.5244 units=km normamps=265.20
New "Linecode.139_3" nphases=3 basefreq=60 r1=0.9750 x1=0.5244 units=km normamps=265.20
New "Linecode.139_4" nphases=4 basefreq=60 r1=0.9750 x1=0.5244 units=km normamps=265.20

New "Linecode.140_1" nphases=1 basefreq=60 r1=0.2670 x1=0.1191 units=km normamps=353.60
New "Linecode.140_2" nphases=2 basefreq=60 r1=0.2670 x1=0.1191 units=km normamps=353.60
New "Linecode.140_3" nphases=3 basefreq=60 r1=0.2670 x1=0.1191 units=km normamps=353.60
New "Linecode.140_4" nphases=4 basefreq=60 r1=0.2670 x1=0.1191 units=km normamps=353.60

New "Linecode.141_1" nphases=1 basefreq=60 r1=0.1500 x1=0.0890 units=km normamps=290.00
New "Linecode.141_2" nphases=2 basefreq=60 r1=0.1500 x1=0.0890 units=km normamps=290.00
New "Linecode.141_3" nphases=3 basefreq=60 r1=0.1500 x1=0.0890 units=km normamps=290.00
New "Linecode.141_4" nphases=4 basefreq=60 r1=0.1500 x1=0.0890 units=km normamps=290.00

New "Linecode.142_1" nphases=1 basefreq=60 r1=0.7702 x1=0.0797 units=km normamps=256.00
New "Linecode.142_2" nphases=2 basefreq=60 r1=0.7702 x1=0.0797 units=km normamps=256.00
New "Linecode.142_3" nphases=3 basefreq=60 r1=0.7702 x1=0.0797 units=km normamps=256.00
New "Linecode.142_4" nphases=4 basefreq=60 r1=0.7702 x1=0.0797 units=km normamps=256.00

New "Linecode.143_1" nphases=1 basefreq=60 r1=2.2949 x1=0.0821 units=km normamps=152.00
New "Linecode.143_2" nphases=2 basefreq=60 r1=2.2949 x1=0.0821 units=km normamps=152.00
New "Linecode.143_3" nphases=3 basefreq=60 r1=2.2949 x1=0.0821 units=km normamps=152.00
New "Linecode.143_4" nphases=4 basefreq=60 r1=2.2949 x1=0.0821 units=km normamps=152.00

New "Linecode.144_1" nphases=1 basefreq=60 r1=0.9750 x1=0.5244 units=km normamps=265.20
New "Linecode.144_2" nphases=2 basefreq=60 r1=0.9750 x1=0.5244 units=km normamps=265.20
New "Linecode.144_3" nphases=3 basefreq=60 r1=0.9750 x1=0.5244 units=km normamps=265.20
New "Linecode.144_4" nphases=4 basefreq=60 r1=0.9750 x1=0.5244 units=km normamps=265.20

New "Linecode.145_1" nphases=1 basefreq=60 r1=0.7734 x1=0.1287 units=km normamps=148.80
New "Linecode.145_2" nphases=2 basefreq=60 r1=0.7734 x1=0.1287 units=km normamps=148.80
New "Linecode.145_3" nphases=3 basefreq=60 r1=0.7734 x1=0.1287 units=km normamps=148.80
New "Linecode.145_4" nphases=4 basefreq=60 r1=0.7734 x1=0.1287 units=km normamps=148.80

New "Linecode.146_1" nphases=1 basefreq=60 r1=0.9750 x1=0.5244 units=km normamps=265.20
New "Linecode.146_2" nphases=2 basefreq=60 r1=0.9750 x1=0.5244 units=km normamps=265.20
New "Linecode.146_3" nphases=3 basefreq=60 r1=0.9750 x1=0.5244 units=km normamps=265.20
New "Linecode.146_4" nphases=4 basefreq=60 r1=0.9750 x1=0.5244 units=km normamps=265.20

New "Linecode.147_1" nphases=1 basefreq=60 r1=0.8054 x1=0.2687 units=km normamps=183.30
New "Linecode.147_2" nphases=2 basefreq=60 r1=0.8054 x1=0.2687 units=km normamps=183.30
New "Linecode.147_3" nphases=3 basefreq=60 r1=0.8054 x1=0.2687 units=km normamps=183.30
New "Linecode.147_4" nphases=4 basefreq=60 r1=0.8054 x1=0.2687 units=km normamps=183.30

New "Linecode.148_1" nphases=1 basefreq=60 r1=0.9750 x1=0.5244 units=km normamps=265.20
New "Linecode.148_2" nphases=2 basefreq=60 r1=0.9750 x1=0.5244 units=km normamps=265.20
New "Linecode.148_3" nphases=3 basefreq=60 r1=0.9750 x1=0.5244 units=km normamps=265.20
New "Linecode.148_4" nphases=4 basefreq=60 r1=0.9750 x1=0.5244 units=km normamps=265.20

New "Linecode.149_1" nphases=1 basefreq=60 r1=0.1500 x1=0.0890 units=km normamps=290.00
New "Linecode.149_2" nphases=2 basefreq=60 r1=0.1500 x1=0.0890 units=km normamps=290.00
New "Linecode.149_3" nphases=3 basefreq=60 r1=0.1500 x1=0.0890 units=km normamps=290.00
New "Linecode.149_4" nphases=4 basefreq=60 r1=0.1500 x1=0.0890 units=km normamps=290.00

New "Linecode.150_1" nphases=1 basefreq=60 r1=0.3250 x1=0.1199 units=km normamps=979.20
New "Linecode.150_2" nphases=2 basefreq=60 r1=0.3250 x1=0.1199 units=km normamps=979.20
New "Linecode.150_3" nphases=3 basefreq=60 r1=0.3250 x1=0.1199 units=km normamps=979.20
New "Linecode.150_4" nphases=4 basefreq=60 r1=0.3250 x1=0.1199 units=km normamps=979.20

New "Linecode.151_1" nphases=1 basefreq=60 r1=0.9750 x1=0.5244 units=km normamps=265.20
New "Linecode.151_2" nphases=2 basefreq=60 r1=0.9750 x1=0.5244 units=km normamps=265.20
New "Linecode.151_3" nphases=3 basefreq=60 r1=0.9750 x1=0.5244 units=km normamps=265.20
New "Linecode.151_4" nphases=4 basefreq=60 r1=0.9750 x1=0.5244 units=km normamps=265.20

New "Linecode.152_1" nphases=1 basefreq=60 r1=1.4418 x1=0.0833 units=km normamps=200.00
New "Linecode.152_2" nphases=2 basefreq=60 r1=1.4418 x1=0.0833 units=km normamps=200.00
New "Linecode.152_3" nphases=3 basefreq=60 r1=1.4418 x1=0.0833 units=km normamps=200.00
New "Linecode.152_4" nphases=4 basefreq=60 r1=1.4418 x1=0.0833 units=km normamps=200.00

New "Linecode.153_1" nphases=1 basefreq=60 r1=0.8054 x1=0.2687 units=km normamps=183.30
New "Linecode.153_2" nphases=2 basefreq=60 r1=0.8054 x1=0.2687 units=km normamps=183.30
New "Linecode.153_3" nphases=3 basefreq=60 r1=0.8054 x1=0.2687 units=km normamps=183.30
New "Linecode.153_4" nphases=4 basefreq=60 r1=0.8054 x1=0.2687 units=km normamps=183.30

New "Linecode.154_1" nphases=1 basefreq=60 r1=0.9750 x1=0.5244 units=km normamps=265.20
New "Linecode.154_2" nphases=2 basefreq=60 r1=0.9750 x1=0.5244 units=km normamps=265.20
New "Linecode.154_3" nphases=3 basefreq=60 r1=0.9750 x1=0.5244 units=km normamps=265.20
New "Linecode.154_4" nphases=4 basefreq=60 r1=0.9750 x1=0.5244 units=km normamps=265.20

New "Linecode.155_1" nphases=1 basefreq=60 r1=0.5323 x1=0.0800 units=km normamps=235.20
New "Linecode.155_2" nphases=2 basefreq=60 r1=0.5323 x1=0.0800 units=km normamps=235.20
New "Linecode.155_3" nphases=3 basefreq=60 r1=0.5323 x1=0.0800 units=km normamps=235.20
New "Linecode.155_4" nphases=4 basefreq=60 r1=0.5323 x1=0.0800 units=km normamps=235.20

New "Linecode.156_1" nphases=1 basefreq=60 r1=0.6375 x1=0.3243 units=km normamps=261.30
New "Linecode.156_2" nphases=2 basefreq=60 r1=0.6375 x1=0.3243 units=km normamps=261.30
New "Linecode.156_3" nphases=3 basefreq=60 r1=0.6375 x1=0.3243 units=km normamps=261.30
New "Linecode.156_4" nphases=4 basefreq=60 r1=0.6375 x1=0.3243 units=km normamps=261.30

New "Linecode.157_1" nphases=1 basefreq=60 r1=0.8054 x1=0.2687 units=km normamps=183.30
New "Linecode.157_2" nphases=2 basefreq=60 r1=0.8054 x1=0.2687 units=km normamps=183.30
New "Linecode.157_3" nphases=3 basefreq=60 r1=0.8054 x1=0.2687 units=km normamps=183.30
New "Linecode.157_4" nphases=4 basefreq=60 r1=0.8054 x1=0.2687 units=km normamps=183.30

New "Linecode.158_1" nphases=1 basefreq=60 r1=2.2949 x1=0.0821 units=km normamps=152.00
New "Linecode.158_2" nphases=2 basefreq=60 r1=2.2949 x1=0.0821 units=km normamps=152.00
New "Linecode.158_3" nphases=3 basefreq=60 r1=2.2949 x1=0.0821 units=km normamps=152.00
New "Linecode.158_4" nphases=4 basefreq=60 r1=2.2949 x1=0.0821 units=km normamps=152.00

New "Linecode.159_1" nphases=1 basefreq=60 r1=0.9750 x1=0.5244 units=km normamps=265.20
New "Linecode.159_2" nphases=2 basefreq=60 r1=0.9750 x1=0.5244 units=km normamps=265.20
New "Linecode.159_3" nphases=3 basefreq=60 r1=0.9750 x1=0.5244 units=km normamps=265.20
New "Linecode.159_4" nphases=4 basefreq=60 r1=0.9750 x1=0.5244 units=km normamps=265.20

New "Linecode.160_1" nphases=1 basefreq=60 r1=0.9750 x1=0.5244 units=km normamps=265.20
New "Linecode.160_2" nphases=2 basefreq=60 r1=0.9750 x1=0.5244 units=km normamps=265.20
New "Linecode.160_3" nphases=3 basefreq=60 r1=0.9750 x1=0.5244 units=km normamps=265.20
New "Linecode.160_4" nphases=4 basefreq=60 r1=0.9750 x1=0.5244 units=km normamps=265.20

New "Linecode.161_1" nphases=1 basefreq=60 r1=2.2949 x1=0.0821 units=km normamps=152.00
New "Linecode.161_2" nphases=2 basefreq=60 r1=2.2949 x1=0.0821 units=km normamps=152.00
New "Linecode.161_3" nphases=3 basefreq=60 r1=2.2949 x1=0.0821 units=km normamps=152.00
New "Linecode.161_4" nphases=4 basefreq=60 r1=2.2949 x1=0.0821 units=km normamps=152.00

New "Linecode.162_1" nphases=1 basefreq=60 r1=1.0429 x1=0.0818 units=km normamps=176.00
New "Linecode.162_2" nphases=2 basefreq=60 r1=1.0429 x1=0.0818 units=km normamps=176.00
New "Linecode.162_3" nphases=3 basefreq=60 r1=1.0429 x1=0.0818 units=km normamps=176.00
New "Linecode.162_4" nphases=4 basefreq=60 r1=1.0429 x1=0.0818 units=km normamps=176.00

New "Linecode.163_1" nphases=1 basefreq=60 r1=2.2949 x1=0.0821 units=km normamps=152.00
New "Linecode.163_2" nphases=2 basefreq=60 r1=2.2949 x1=0.0821 units=km normamps=152.00
New "Linecode.163_3" nphases=3 basefreq=60 r1=2.2949 x1=0.0821 units=km normamps=152.00
New "Linecode.163_4" nphases=4 basefreq=60 r1=2.2949 x1=0.0821 units=km normamps=152.00

New "Linecode.164_1" nphases=1 basefreq=60 r1=0.1115 x1=0.1200 units=km normamps=1056.00
New "Linecode.164_2" nphases=2 basefreq=60 r1=0.1115 x1=0.1200 units=km normamps=1056.00
New "Linecode.164_3" nphases=3 basefreq=60 r1=0.1115 x1=0.1200 units=km normamps=1056.00
New "Linecode.164_4" nphases=4 basefreq=60 r1=0.1115 x1=0.1200 units=km normamps=1056.00

New "Linecode.165_1" nphases=1 basefreq=60 r1=0.1500 x1=0.0890 units=km normamps=290.00
New "Linecode.165_2" nphases=2 basefreq=60 r1=0.1500 x1=0.0890 units=km normamps=290.00
New "Linecode.165_3" nphases=3 basefreq=60 r1=0.1500 x1=0.0890 units=km normamps=290.00
New "Linecode.165_4" nphases=4 basefreq=60 r1=0.1500 x1=0.0890 units=km normamps=290.00

New "Linecode.166_1" nphases=1 basefreq=60 r1=2.2949 x1=0.0821 units=km normamps=152.00
New "Linecode.166_2" nphases=2 basefreq=60 r1=2.2949 x1=0.0821 units=km normamps=152.00
New "Linecode.166_3" nphases=3 basefreq=60 r1=2.2949 x1=0.0821 units=km normamps=152.00
New "Linecode.166_4" nphases=4 basefreq=60 r1=2.2949 x1=0.0821 units=km normamps=152.00

New "Linecode.167_1" nphases=1 basefreq=60 r1=0.3186 x1=0.2348 units=km normamps=309.40
New "Linecode.167_2" nphases=2 basefreq=60 r1=0.3186 x1=0.2348 units=km normamps=309.40
New "Linecode.167_3" nphases=3 basefreq=60 r1=0.3186 x1=0.2348 units=km normamps=309.40
New "Linecode.167_4" nphases=4 basefreq=60 r1=0.3186 x1=0.2348 units=km normamps=309.40

New "Linecode.168_1" nphases=1 basefreq=60 r1=0.8054 x1=0.2687 units=km normamps=183.30
New "Linecode.168_2" nphases=2 basefreq=60 r1=0.8054 x1=0.2687 units=km normamps=183.30
New "Linecode.168_3" nphases=3 basefreq=60 r1=0.8054 x1=0.2687 units=km normamps=183.30
New "Linecode.168_4" nphases=4 basefreq=60 r1=0.8054 x1=0.2687 units=km normamps=183.30

New "Linecode.169_1" nphases=1 basefreq=60 r1=0.8220 x1=0.1301 units=km normamps=179.40
New "Linecode.169_2" nphases=2 basefreq=60 r1=0.8220 x1=0.1301 units=km normamps=179.40
New "Linecode.169_3" nphases=3 basefreq=60 r1=0.8220 x1=0.1301 units=km normamps=179.40
New "Linecode.169_4" nphases=4 basefreq=60 r1=0.8220 x1=0.1301 units=km normamps=179.40

...