Localizador/JMLT310/SegmentosMT_2023124950_JMLT310_--MBS-1P-T--.dss
New "Line.SMT_1689590278" phases=3 bus1="NODE#2015114208.1.2.3" bus2="NODE#2015114266.1.2.3" linecode="38_3" length=0.00200 units=km
New "Line.SMT_247808858" phases=3 bus1="NODE#445011477.1.2.3" bus2="NODE#445010991.1.2.3" linecode="46_3" length=0.03625 units=km
New "Line.SMT_246684459" phases=3 bus1="NODE#433296879.1.2.3" bus2="NODE#439763061.1.2.3" linecode="59_3" length=0.03162 units=km
New "Line.SMT_245489117" phases=3 bus1="NODE#433472428.1.2.3" bus2="NODE#433472423.1.2.3" linecode="35_3" length=0.03302 units=km
New "Line.SMT_247808848" phases=3 bus1="NODE#445011925.1.2.3" bus2="NODE#445011926.1.2.3" linecode="48_3" length=0.01456 units=km
New "Line.SMT_243624933" phases=3 bus1="NODE#424245680.1.2.3" bus2="NODE#2316029041.1.2.3" linecode="48_3" length=0.03401 units=km
New "Line.SMT_1094029690" phases=3 bus1="NODE#1361434537.1.2.3" bus2="NODE#1361434532.1.2.3" linecode="35_3" length=0.00800 units=km
New "Line.SMT_348421388" phases=3 bus1="NODE#445011322.1.2.3" bus2="NODE#544639225.1.2.3" linecode="46_3" length=0.00052 units=km
New "Line.SMT_245488906" phases=3 bus1="NODE#433471373.1.2.3" bus2="NODE#424245131.1.2.3" linecode="35_3" length=0.03384 units=km
New "Line.SMT_243625065" phases=3 bus1="NODE#424246344.1.2.3" bus2="NODE#424246345.1.2.3" linecode="48_3" length=0.03105 units=km
New "Line.SMT_247127392" phases=3 bus1="NODE#442497507.1.2.3" bus2="NODE#442497541.1.2.3" linecode="77_3" length=0.02746 units=km
New "Line.SMT_1555106510" phases=3 bus1="NODE#1856060604.1.2.3" bus2="NODE#1856060615.1.2.3" linecode="38_3" length=0.02900 units=km
New "Line.SMT_347582184" phases=3 bus1="NODE#444955884.1.2.3" bus2="NODE#542538340.1.2.3" linecode="46_3" length=0.00052 units=km
New "Line.SMT_245699228" phases=3 bus1="NODE#434600367.1.2.3" bus2="NODE#434600368.1.2.3" linecode="77_3" length=0.03500 units=km
New "Line.SMT_245489576" phases=3 bus1="NODE#537935146.1.2.3" bus2="NODE#433474728.1.2.3" linecode="35_3" length=0.00049 units=km
New "Line.SMT_247809150" phases=3 bus1="NODE#445056379.1.2.3" bus2="NODE#445056380.1.2.3" linecode="46_3" length=0.02800 units=km
New "Line.SMT_247808958" phases=3 bus1="NODE#445012475.1.2.3" bus2="NODE#445012476.1.2.3" linecode="46_3" length=0.03640 units=km
New "Line.SMT_247808916" phases=1 bus1="NODE#445012265.3" bus2="NODE#445012260.3" linecode="1193_1" length=0.02729 units=km
New "Line.SMT_245489031" phases=3 bus1="NODE#433471434.1.2.3" bus2="NODE#433471458.1.2.3" linecode="35_3" length=0.03384 units=km
New "Line.SMT_348729992" phases=1 bus1="NODE#433473272.3" bus2="NODE#545462400.3" linecode="1193_1" length=0.00052 units=km
New "Line.SMT_247807317" phases=3 bus1="NODE#444896912.1.2.3" bus2="NODE#444896913.1.2.3" linecode="48_3" length=0.01868 units=km
New "Line.SMT_1660335391" phases=1 bus1="NODE#1981522703.3" bus2="NODE#1981522672.3" linecode="1222_1" length=0.03500 units=km
New "Line.SMT_247808488" phases=3 bus1="NODE#445009992.1.2.3" bus2="NODE#445009961.1.2.3" linecode="46_3" length=0.03401 units=km
New "Line.SMT_247808436" phases=3 bus1="NODE#424246390.1.2.3" bus2="NODE#442497676.1.2.3" linecode="48_3" length=0.03800 units=km
New "Line.SMT_247807229" phases=3 bus1="NODE#444896472.1.2.3" bus2="NODE#444896437.1.2.3" linecode="48_3" length=0.03158 units=km
New "Line.SMT_247808659" phases=3 bus1="NODE#445010976.1.2.3" bus2="NODE#445010977.1.2.3" linecode="46_3" length=0.03362 units=km
New "Line.SMT_247391747" phases=3 bus1="NODE#1361434537.1.2.3" bus2="NODE#443093679.1.2.3" linecode="40_3" length=0.03600 units=km
New "Line.SMT_245488895" phases=3 bus1="NODE#433471318.1.2.3" bus2="NODE#433471319.1.2.3" linecode="35_3" length=0.03499 units=km
New "Line.SMT_245489264" phases=1 bus1="NODE#1981522202.3" bus2="NODE#1981522216.3" linecode="1192_1" length=0.03034 units=km
New "Line.SMT_245489175" phases=3 bus1="NODE#433472718.1.2.3" bus2="NODE#433472719.1.2.3" linecode="35_3" length=0.02012 units=km
New "Line.SMT_247808920" phases=1 bus1="NODE#445012285.3" bus2="NODE#445012286.3" linecode="1193_1" length=0.03245 units=km
New "Line.SMT_243624983" phases=3 bus1="NODE#424245856.1.2.3" bus2="NODE#424245920.1.2.3" linecode="48_3" length=0.02617 units=km
New "Line.SMT_243624810" phases=3 bus1="NODE#424245061.1.2.3" bus2="NODE#424245062.1.2.3" linecode="78_3" length=0.02802 units=km
New "Line.SMT_245699232" phases=1 bus1="NODE#434600387.2" bus2="NODE#434600388.2" linecode="1241_1" length=0.02773 units=km
New "Line.SMT_247808591" phases=3 bus1="NODE#444956619.1.2.3" bus2="NODE#445010637.1.2.3" linecode="46_3" length=0.03102 units=km
New "Line.SMT_247127498" phases=3 bus1="NODE#442497542.1.2.3" bus2="NODE#442497516.1.2.3" linecode="77_3" length=0.03265 units=km
New "Line.SMT_247808962" phases=3 bus1="NODE#445012495.1.2.3" bus2="NODE#445012496.1.2.3" linecode="46_3" length=0.02700 units=km
New "Line.SMT_247808472" phases=3 bus1="NODE#445009607.1.2.3" bus2="NODE#445010042.1.2.3" linecode="46_3" length=0.04346 units=km
...